<?xml version="1.0" encoding="UTF-8"?>

<!-- generated on 2025-11-17T23:19:43.777289+05:30 by Eclipse SUMO netedit 1.25.0
<neteditConfiguration xmlns:xsi="http://www.w3.org/2001/XMLSchema-instance" xsi:noNamespaceSchemaLocation="http://sumo.dlr.de/xsd/neteditConfiguration.xsd">

    <input>
        <sumocfg-file value="C:\Users\OMEN\Downloads\test\test1.sumocfg"/>
        <route-files value="C:\Users\OMEN\Downloads\test\test1.rou.xml"/>
        <sumo-net-file value="C:\Users\OMEN\Downloads\test\DqnFor2lane.net.xml"/>
    </input>

    <output>
        <output-file value="C:\Users\OMEN\Downloads\test\DqnFor2lane.net.xml"/>
    </output>

    <processing>
        <offset.disable-normalization value="true"/>
    </processing>

    <junctions>
        <no-turnarounds value="true"/>
    </junctions>

    <netedit>
        <new-network value="false"/>
    </netedit>

</neteditConfiguration>
-->

<net version="1.20" junctionCornerDetail="5" limitTurnSpeed="5.50" xmlns:xsi="http://www.w3.org/2001/XMLSchema-instance" xsi:noNamespaceSchemaLocation="http://sumo.dlr.de/xsd/net_file.xsd">

    <location netOffset="0.00,0.00" convBoundary="-97.93,-44.15,60.00,45.49" origBoundary="10000000000.00,10000000000.00,-10000000000.00,-10000000000.00" projParameter="!"/>

    <edge id=":clusterJ5_J6_0" function="internal">
        <lane id=":clusterJ5_J6_0_0" index="0" speed="13.89" length="11.21" shape="-23.31,8.08 -23.31,-3.12"/>
    </edge>
    <edge id=":clusterJ5_J6_1" function="internal">
        <lane id=":clusterJ5_J6_1_0" index="0" speed="6.50" length="9.03" shape="-23.31,8.08 -22.96,5.63 -21.91,3.88 -20.16,2.84 -17.71,2.49"/>
    </edge>
    <edge id=":clusterJ5_J6_2" function="internal">
        <lane id=":clusterJ5_J6_2_0" index="0" speed="6.50" length="9.03" shape="-28.91,2.47 -26.46,2.12 -24.71,1.08 -23.66,-0.67 -23.31,-3.12"/>
    </edge>
    <edge id=":clusterJ5_J6_3" function="internal">
        <lane id=":clusterJ5_J6_3_0" index="0" speed="13.89" length="11.21" shape="-28.91,2.47 -17.71,2.49"/>
    </edge>

    <edge id="E0" from="J0" to="clusterJ5_J6" priority="-1" shape="-21.71,45.49 -21.71,-0.12">
        <lane id="E0_0" index="0" speed="13.89" length="37.41" shape="-23.31,45.49 -23.31,8.08"/>
    </edge>
    <edge id="E0.45" from="clusterJ5_J6" to="J1" priority="-1" shape="-21.71,-0.12 -21.71,-44.15">
        <lane id="E0.45_0" index="0" speed="13.89" length="41.03" shape="-23.31,-3.12 -23.31,-44.15"/>
    </edge>
    <edge id="E1" from="J2" to="clusterJ5_J6" priority="-1" shape="-97.93,3.90 -23.42,4.08">
        <lane id="E1_0" index="0" speed="13.89" length="69.01" shape="-97.93,2.30 -28.91,2.47"/>
    </edge>
    <edge id="E1.74" from="clusterJ5_J6" to="J3" priority="-1" shape="-23.42,4.08 60.00,4.27">
        <lane id="E1.74_0" index="0" speed="13.89" length="77.71" shape="-17.71,2.49 60.00,2.67"/>
    </edge>

    <tlLogic id="clusterJ5_J6" type="static" programID="0" offset="0">
        <phase duration="5"  state="GGrr"/>
        <phase duration="5"  state="yyrr"/>
        <phase duration="5"  state="rrGG"/>
        <phase duration="5"  state="rryy"/>
    </tlLogic>

    <junction id="J0" type="dead_end" x="-21.71" y="45.49" incLanes="" intLanes="" shape="-21.71,45.49 -24.91,45.49"/>
    <junction id="J1" type="dead_end" x="-21.71" y="-44.15" incLanes="E0.45_0" intLanes="" shape="-24.91,-44.15 -21.71,-44.15"/>
    <junction id="J2" type="dead_end" x="-97.93" y="3.90" incLanes="" intLanes="" shape="-97.93,3.90 -97.92,0.70"/>
    <junction id="J3" type="dead_end" x="60.00" y="4.27" incLanes="E1.74_0" intLanes="" shape="60.01,1.07 60.00,4.27"/>
    <junction id="clusterJ5_J6" type="traffic_light" x="-22.56" y="1.98" incLanes="E0_0 E1_0" intLanes=":clusterJ5_J6_0_0 :clusterJ5_J6_1_0 :clusterJ5_J6_2_0 :clusterJ5_J6_3_0" shape="-24.91,8.08 -21.71,8.08 -21.27,5.86 -20.71,5.09 -19.93,4.53 -18.93,4.20 -17.71,4.09 -17.70,0.89 -19.93,0.44 -20.71,-0.12 -21.26,-0.90 -21.60,-1.90 -21.71,-3.12 -24.91,-3.12 -25.35,-0.90 -25.91,-0.13 -26.69,0.43 -27.69,0.76 -28.91,0.87 -28.92,4.07 -26.69,4.52 -25.91,5.08 -25.36,5.86 -25.02,6.86">
        <request index="0" response="1100" foes="1100" cont="0"/>
        <request index="1" response="1000" foes="1000" cont="0"/>
        <request index="2" response="0000" foes="0001" cont="0"/>
        <request index="3" response="0000" foes="0011" cont="0"/>
    </junction>

    <connection from="E0" to="E0.45" fromLane="0" toLane="0" via=":clusterJ5_J6_0_0" tl="clusterJ5_J6" linkIndex="0" dir="s" state="o"/>
    <connection from="E0" to="E1.74" fromLane="0" toLane="0" via=":clusterJ5_J6_1_0" tl="clusterJ5_J6" linkIndex="1" dir="l" state="o"/>
    <connection from="E1" to="E0.45" fromLane="0" toLane="0" via=":clusterJ5_J6_2_0" tl="clusterJ5_J6" linkIndex="2" dir="r" state="O"/>
    <connection from="E1" to="E1.74" fromLane="0" toLane="0" via=":clusterJ5_J6_3_0" tl="clusterJ5_J6" linkIndex="3" dir="s" state="O"/>

    <connection from=":clusterJ5_J6_0" to="E0.45" fromLane="0" toLane="0" dir="s" state="M"/>
    <connection from=":clusterJ5_J6_1" to="E1.74" fromLane="0" toLane="0" dir="l" state="M"/>
    <connection from=":clusterJ5_J6_2" to="E0.45" fromLane="0" toLane="0" dir="r" state="M"/>
    <connection from=":clusterJ5_J6_3" to="E1.74" fromLane="0" toLane="0" dir="s" state="M"/>

</net>
