<?xml version="1.0" encoding="UTF-8"?>

<!-- generated on 2025-11-17T16:15:45.846578+05:30 by Eclipse SUMO netedit 1.25.0
-->

<routes xmlns:xsi="http://www.w3.org/2001/XMLSchema-instance" xsi:noNamespaceSchemaLocation="http://sumo.dlr.de/xsd/routes_file.xsd">
    <!-- Vehicles, persons and containers (sorted by depart) -->
    <trip id="t_0" depart="0.00" from="E1" to="E1.74"/>
    <trip id="t_1" depart="0.00" from="E0" to="E0.45"/>
    <flow id="f_0" begin="0.00" end="3600.00" perHour="500.00" color="grey" from="E1" to="E1.74"/>
    <flow id="f_1" begin="0.00" end="3600.00" perHour="500.00" color="blue" from="E0" to="E0.45"/>
</routes>
