<?xml version="1.0" encoding="UTF-8"?>

<!-- generated on 2025-11-17T23:22:30.223424+05:30 by Eclipse SUMO sumo 1.25.0
-->

<sumoConfiguration xmlns:xsi="http://www.w3.org/2001/XMLSchema-instance" xsi:noNamespaceSchemaLocation="http://sumo.dlr.de/xsd/sumoConfiguration.xsd">

    <input>
        <net-file value="DqnFor2lane.net.xml"/>
        <route-files value="test1.rou.xml"/>
    </input>

</sumoConfiguration>
