<?xml version="1.0" encoding="UTF-8"?>

<!-- generated on 2026-06-11T02:12:40.018774+05:30 by Eclipse SUMO netgenerate 1.25.0
<netgenerateConfiguration xmlns:xsi="http://www.w3.org/2001/XMLSchema-instance" xsi:noNamespaceSchemaLocation="http://sumo.dlr.de/xsd/netgenerateConfiguration.xsd">

    <grid_network>
        <grid value="true"/>
        <grid.number value="1"/>
        <grid.length value="200"/>
        <grid.attach-length value="220"/>
    </grid_network>

    <output>
        <output-file value="C:\Users\OMEN\Desktop\trafficdeck\data\demo.net.xml"/>
    </output>

    <building_defaults>
        <default.lanenumber value="4"/>
        <default.speed value="13.89"/>
        <default-junction-type value="traffic_light"/>
    </building_defaults>

    <tls_building>
        <tls.guess value="true"/>
    </tls_building>

    <junctions>
        <no-turnarounds value="true"/>
    </junctions>

</netgenerateConfiguration>
-->

<net version="1.20" junctionCornerDetail="5" limitTurnSpeed="5.50" xmlns:xsi="http://www.w3.org/2001/XMLSchema-instance" xsi:noNamespaceSchemaLocation="http://sumo.dlr.de/xsd/net_file.xsd">

    <location netOffset="0.00,0.00" convBoundary="0.00,0.00,440.00,440.00" origBoundary="0.00,0.00,440.00,440.00" projParameter="!"/>

    <edge id=":A0_0" function="internal">
        <lane id=":A0_0_0" index="0" speed="6.51" length="9.03" shape="208.80,236.80 208.45,234.35 207.40,232.60 205.65,231.55 203.20,231.20"/>
    </edge>
    <edge id=":A0_1" function="internal">
        <lane id=":A0_1_0" index="0" speed="13.89" length="33.60" shape="208.80,236.80 208.80,203.20"/>
        <lane id=":A0_1_1" index="1" speed="13.89" length="33.60" shape="212.00,236.80 212.00,203.20"/>
        <lane id=":A0_1_2" index="2" speed="13.89" length="33.60" shape="215.20,236.80 215.20,203.20"/>
        <lane id=":A0_1_3" index="3" speed="13.89" length="33.60" shape="218.40,236.80 218.40,203.20"/>
    </edge>
    <edge id=":A0_5" function="internal">
        <lane id=":A0_5_0" index="0" speed="11.36" length="5.01" shape="218.40,236.80 219.11,231.84"/>
    </edge>
    <edge id=":A0_24" function="internal">
        <lane id=":A0_24_0" index="0" speed="11.36" length="24.66" shape="219.11,231.84 219.55,228.75 223.00,223.00 228.75,219.55 236.80,218.40"/>
    </edge>
    <edge id=":A0_6" function="internal">
        <lane id=":A0_6_0" index="0" speed="6.51" length="9.03" shape="236.80,231.20 234.35,231.55 232.60,232.60 231.55,234.35 231.20,236.80"/>
    </edge>
    <edge id=":A0_7" function="internal">
        <lane id=":A0_7_0" index="0" speed="13.89" length="33.60" shape="236.80,231.20 203.20,231.20"/>
        <lane id=":A0_7_1" index="1" speed="13.89" length="33.60" shape="236.80,228.00 203.20,228.00"/>
        <lane id=":A0_7_2" index="2" speed="13.89" length="33.60" shape="236.80,224.80 203.20,224.80"/>
        <lane id=":A0_7_3" index="3" speed="13.89" length="33.60" shape="236.80,221.60 203.20,221.60"/>
    </edge>
    <edge id=":A0_11" function="internal">
        <lane id=":A0_11_0" index="0" speed="11.36" length="5.01" shape="236.80,221.60 231.84,220.89"/>
    </edge>
    <edge id=":A0_25" function="internal">
        <lane id=":A0_25_0" index="0" speed="11.36" length="24.66" shape="231.84,220.89 228.75,220.45 223.00,217.00 219.55,211.25 218.40,203.20"/>
    </edge>
    <edge id=":A0_12" function="internal">
        <lane id=":A0_12_0" index="0" speed="6.51" length="9.03" shape="231.20,203.20 231.55,205.65 232.60,207.40 234.35,208.45 236.80,208.80"/>
    </edge>
    <edge id=":A0_13" function="internal">
        <lane id=":A0_13_0" index="0" speed="13.89" length="33.60" shape="231.20,203.20 231.20,236.80"/>
        <lane id=":A0_13_1" index="1" speed="13.89" length="33.60" shape="228.00,203.20 228.00,236.80"/>
        <lane id=":A0_13_2" index="2" speed="13.89" length="33.60" shape="224.80,203.20 224.80,236.80"/>
        <lane id=":A0_13_3" index="3" speed="13.89" length="33.60" shape="221.60,203.20 221.60,236.80"/>
    </edge>
    <edge id=":A0_17" function="internal">
        <lane id=":A0_17_0" index="0" speed="11.36" length="5.01" shape="221.60,203.20 220.89,208.16"/>
    </edge>
    <edge id=":A0_26" function="internal">
        <lane id=":A0_26_0" index="0" speed="11.36" length="24.66" shape="220.89,208.16 220.45,211.25 217.00,217.00 211.25,220.45 203.20,221.60"/>
    </edge>
    <edge id=":A0_18" function="internal">
        <lane id=":A0_18_0" index="0" speed="6.51" length="9.03" shape="203.20,208.80 205.65,208.45 207.40,207.40 208.45,205.65 208.80,203.20"/>
    </edge>
    <edge id=":A0_19" function="internal">
        <lane id=":A0_19_0" index="0" speed="13.89" length="33.60" shape="203.20,208.80 236.80,208.80"/>
        <lane id=":A0_19_1" index="1" speed="13.89" length="33.60" shape="203.20,212.00 236.80,212.00"/>
        <lane id=":A0_19_2" index="2" speed="13.89" length="33.60" shape="203.20,215.20 236.80,215.20"/>
        <lane id=":A0_19_3" index="3" speed="13.89" length="33.60" shape="203.20,218.40 236.80,218.40"/>
    </edge>
    <edge id=":A0_23" function="internal">
        <lane id=":A0_23_0" index="0" speed="11.36" length="5.01" shape="203.20,218.40 208.16,219.11"/>
    </edge>
    <edge id=":A0_27" function="internal">
        <lane id=":A0_27_0" index="0" speed="11.36" length="24.66" shape="208.16,219.11 211.25,219.55 217.00,223.00 220.45,228.75 221.60,236.80"/>
    </edge>

    <edge id="A0bottom0" from="A0" to="bottom0" priority="-1">
        <lane id="A0bottom0_0" index="0" speed="13.89" length="203.20" shape="208.80,203.20 208.80,0.00"/>
        <lane id="A0bottom0_1" index="1" speed="13.89" length="203.20" shape="212.00,203.20 212.00,0.00"/>
        <lane id="A0bottom0_2" index="2" speed="13.89" length="203.20" shape="215.20,203.20 215.20,0.00"/>
        <lane id="A0bottom0_3" index="3" speed="13.89" length="203.20" shape="218.40,203.20 218.40,0.00"/>
    </edge>
    <edge id="A0left0" from="A0" to="left0" priority="-1">
        <lane id="A0left0_0" index="0" speed="13.89" length="203.20" shape="203.20,231.20 0.00,231.20"/>
        <lane id="A0left0_1" index="1" speed="13.89" length="203.20" shape="203.20,228.00 0.00,228.00"/>
        <lane id="A0left0_2" index="2" speed="13.89" length="203.20" shape="203.20,224.80 0.00,224.80"/>
        <lane id="A0left0_3" index="3" speed="13.89" length="203.20" shape="203.20,221.60 0.00,221.60"/>
    </edge>
    <edge id="A0right0" from="A0" to="right0" priority="-1">
        <lane id="A0right0_0" index="0" speed="13.89" length="203.20" shape="236.80,208.80 440.00,208.80"/>
        <lane id="A0right0_1" index="1" speed="13.89" length="203.20" shape="236.80,212.00 440.00,212.00"/>
        <lane id="A0right0_2" index="2" speed="13.89" length="203.20" shape="236.80,215.20 440.00,215.20"/>
        <lane id="A0right0_3" index="3" speed="13.89" length="203.20" shape="236.80,218.40 440.00,218.40"/>
    </edge>
    <edge id="A0top0" from="A0" to="top0" priority="-1">
        <lane id="A0top0_0" index="0" speed="13.89" length="203.20" shape="231.20,236.80 231.20,440.00"/>
        <lane id="A0top0_1" index="1" speed="13.89" length="203.20" shape="228.00,236.80 228.00,440.00"/>
        <lane id="A0top0_2" index="2" speed="13.89" length="203.20" shape="224.80,236.80 224.80,440.00"/>
        <lane id="A0top0_3" index="3" speed="13.89" length="203.20" shape="221.60,236.80 221.60,440.00"/>
    </edge>
    <edge id="bottom0A0" from="bottom0" to="A0" priority="-1">
        <lane id="bottom0A0_0" index="0" speed="13.89" length="203.20" shape="231.20,0.00 231.20,203.20"/>
        <lane id="bottom0A0_1" index="1" speed="13.89" length="203.20" shape="228.00,0.00 228.00,203.20"/>
        <lane id="bottom0A0_2" index="2" speed="13.89" length="203.20" shape="224.80,0.00 224.80,203.20"/>
        <lane id="bottom0A0_3" index="3" speed="13.89" length="203.20" shape="221.60,0.00 221.60,203.20"/>
    </edge>
    <edge id="left0A0" from="left0" to="A0" priority="-1">
        <lane id="left0A0_0" index="0" speed="13.89" length="203.20" shape="0.00,208.80 203.20,208.80"/>
        <lane id="left0A0_1" index="1" speed="13.89" length="203.20" shape="0.00,212.00 203.20,212.00"/>
        <lane id="left0A0_2" index="2" speed="13.89" length="203.20" shape="0.00,215.20 203.20,215.20"/>
        <lane id="left0A0_3" index="3" speed="13.89" length="203.20" shape="0.00,218.40 203.20,218.40"/>
    </edge>
    <edge id="right0A0" from="right0" to="A0" priority="-1">
        <lane id="right0A0_0" index="0" speed="13.89" length="203.20" shape="440.00,231.20 236.80,231.20"/>
        <lane id="right0A0_1" index="1" speed="13.89" length="203.20" shape="440.00,228.00 236.80,228.00"/>
        <lane id="right0A0_2" index="2" speed="13.89" length="203.20" shape="440.00,224.80 236.80,224.80"/>
        <lane id="right0A0_3" index="3" speed="13.89" length="203.20" shape="440.00,221.60 236.80,221.60"/>
    </edge>
    <edge id="top0A0" from="top0" to="A0" priority="-1">
        <lane id="top0A0_0" index="0" speed="13.89" length="203.20" shape="208.80,440.00 208.80,236.80"/>
        <lane id="top0A0_1" index="1" speed="13.89" length="203.20" shape="212.00,440.00 212.00,236.80"/>
        <lane id="top0A0_2" index="2" speed="13.89" length="203.20" shape="215.20,440.00 215.20,236.80"/>
        <lane id="top0A0_3" index="3" speed="13.89" length="203.20" shape="218.40,440.00 218.40,236.80"/>
    </edge>

    <tlLogic id="A0" type="static" programID="0" offset="0">
        <phase duration="42" state="GGGGGgrrrrrrGGGGGgrrrrrr"/>
        <phase duration="3"  state="yyyyyyrrrrrryyyyyyrrrrrr"/>
        <phase duration="42" state="rrrrrrGGGGGgrrrrrrGGGGGg"/>
        <phase duration="3"  state="rrrrrryyyyyyrrrrrryyyyyy"/>
    </tlLogic>

    <junction id="A0" type="traffic_light" x="220.00" y="220.00" incLanes="top0A0_0 top0A0_1 top0A0_2 top0A0_3 right0A0_0 right0A0_1 right0A0_2 right0A0_3 bottom0A0_0 bottom0A0_1 bottom0A0_2 bottom0A0_3 left0A0_0 left0A0_1 left0A0_2 left0A0_3" intLanes=":A0_0_0 :A0_1_0 :A0_1_1 :A0_1_2 :A0_1_3 :A0_24_0 :A0_6_0 :A0_7_0 :A0_7_1 :A0_7_2 :A0_7_3 :A0_25_0 :A0_12_0 :A0_13_0 :A0_13_1 :A0_13_2 :A0_13_3 :A0_26_0 :A0_18_0 :A0_19_0 :A0_19_1 :A0_19_2 :A0_19_3 :A0_27_0" shape="207.20,236.80 232.80,236.80 233.24,234.58 233.80,233.80 234.58,233.24 235.58,232.91 236.80,232.80 236.80,207.20 234.58,206.76 233.80,206.20 233.24,205.42 232.91,204.42 232.80,203.20 207.20,203.20 206.76,205.42 206.20,206.20 205.42,206.76 204.42,207.09 203.20,207.20 203.20,232.80 205.42,233.24 206.20,233.80 206.76,234.58 207.09,235.58">
        <request index="0"  response="000000000000000000000000" foes="000000000000011110000000" cont="0"/>
        <request index="1"  response="100000000000000000000000" foes="111111100000111110000000" cont="0"/>
        <request index="2"  response="100000000000000000000000" foes="111111100000111110000000" cont="0"/>
        <request index="3"  response="100000000000000000000000" foes="111111100000111110000000" cont="0"/>
        <request index="4"  response="100000000000100000000000" foes="111111100000111110000000" cont="0"/>
        <request index="5"  response="100000011110100000000000" foes="111110011110111110000000" cont="1"/>
        <request index="6"  response="000000011110000000000000" foes="000000011110000000000000" cont="0"/>
        <request index="7"  response="000000111110000000111111" foes="100000111110000000111111" cont="0"/>
        <request index="8"  response="000000111110000000111111" foes="100000111110000000111111" cont="0"/>
        <request index="9"  response="000000111110000000111111" foes="100000111110000000111111" cont="0"/>
        <request index="10" response="000000111110000000111111" foes="100000111110000000111111" cont="0"/>
        <request index="11" response="011110111110000000111110" foes="011110111110000000111110" cont="1"/>
        <request index="12" response="000000000000000000000000" foes="011110000000000000000000" cont="0"/>
        <request index="13" response="000000000000100000000000" foes="111110000000111111100000" cont="0"/>
        <request index="14" response="000000000000100000000000" foes="111110000000111111100000" cont="0"/>
        <request index="15" response="000000000000100000000000" foes="111110000000111111100000" cont="0"/>
        <request index="16" response="100000000000100000000000" foes="111110000000111111100000" cont="0"/>
        <request index="17" response="100000000000100000011110" foes="111110000000111110011110" cont="1"/>
        <request index="18" response="000000000000000000011110" foes="000000000000000000011110" cont="0"/>
        <request index="19" response="000000111111000000111110" foes="000000111111100000111110" cont="0"/>
        <request index="20" response="000000111111000000111110" foes="000000111111100000111110" cont="0"/>
        <request index="21" response="000000111111000000111110" foes="000000111111100000111110" cont="0"/>
        <request index="22" response="000000111111000000111110" foes="000000111111100000111110" cont="0"/>
        <request index="23" response="000000111110011110111110" foes="000000111110011110111110" cont="1"/>
    </junction>
    <junction id="bottom0" type="dead_end" x="220.00" y="0.00" incLanes="A0bottom0_0 A0bottom0_1 A0bottom0_2 A0bottom0_3" intLanes="" shape="220.00,0.00 207.20,0.00 220.00,0.00" fringe="outer"/>
    <junction id="left0" type="dead_end" x="0.00" y="220.00" incLanes="A0left0_0 A0left0_1 A0left0_2 A0left0_3" intLanes="" shape="0.00,220.00 0.00,232.80 0.00,220.00" fringe="outer"/>
    <junction id="right0" type="dead_end" x="440.00" y="220.00" incLanes="A0right0_0 A0right0_1 A0right0_2 A0right0_3" intLanes="" shape="440.00,220.00 440.00,207.20 440.00,220.00" fringe="outer"/>
    <junction id="top0" type="dead_end" x="220.00" y="440.00" incLanes="A0top0_0 A0top0_1 A0top0_2 A0top0_3" intLanes="" shape="220.00,440.00 232.80,440.00 220.00,440.00" fringe="outer"/>

    <junction id=":A0_24_0" type="internal" x="219.11" y="231.84" incLanes=":A0_5_0 bottom0A0_0 bottom0A0_1 bottom0A0_2 bottom0A0_3" intLanes=":A0_7_0 :A0_7_1 :A0_7_2 :A0_7_3 :A0_11_0 :A0_12_0 :A0_13_0 :A0_13_1 :A0_13_2 :A0_13_3 :A0_19_0 :A0_19_1 :A0_19_2 :A0_19_3 :A0_23_0"/>
    <junction id=":A0_25_0" type="internal" x="231.84" y="220.89" incLanes=":A0_11_0 left0A0_0 left0A0_1 left0A0_2 left0A0_3" intLanes=":A0_1_0 :A0_1_1 :A0_1_2 :A0_1_3 :A0_5_0 :A0_13_0 :A0_13_1 :A0_13_2 :A0_13_3 :A0_17_0 :A0_18_0 :A0_19_0 :A0_19_1 :A0_19_2 :A0_19_3"/>
    <junction id=":A0_26_0" type="internal" x="220.89" y="208.16" incLanes=":A0_17_0 top0A0_0 top0A0_1 top0A0_2 top0A0_3" intLanes=":A0_0_0 :A0_1_0 :A0_1_1 :A0_1_2 :A0_1_3 :A0_7_0 :A0_7_1 :A0_7_2 :A0_7_3 :A0_11_0 :A0_19_0 :A0_19_1 :A0_19_2 :A0_19_3 :A0_23_0"/>
    <junction id=":A0_27_0" type="internal" x="208.16" y="219.11" incLanes=":A0_23_0 right0A0_0 right0A0_1 right0A0_2 right0A0_3" intLanes=":A0_1_0 :A0_1_1 :A0_1_2 :A0_1_3 :A0_5_0 :A0_6_0 :A0_7_0 :A0_7_1 :A0_7_2 :A0_7_3 :A0_13_0 :A0_13_1 :A0_13_2 :A0_13_3 :A0_17_0"/>

    <connection from="bottom0A0" to="A0right0" fromLane="0" toLane="0" via=":A0_12_0" tl="A0" linkIndex="12" dir="r" state="O"/>
    <connection from="bottom0A0" to="A0top0" fromLane="0" toLane="0" via=":A0_13_0" tl="A0" linkIndex="13" dir="s" state="O"/>
    <connection from="bottom0A0" to="A0top0" fromLane="1" toLane="1" via=":A0_13_1" tl="A0" linkIndex="14" dir="s" state="O"/>
    <connection from="bottom0A0" to="A0top0" fromLane="2" toLane="2" via=":A0_13_2" tl="A0" linkIndex="15" dir="s" state="O"/>
    <connection from="bottom0A0" to="A0top0" fromLane="3" toLane="3" via=":A0_13_3" tl="A0" linkIndex="16" dir="s" state="O"/>
    <connection from="bottom0A0" to="A0left0" fromLane="3" toLane="3" via=":A0_17_0" tl="A0" linkIndex="17" dir="l" state="o"/>
    <connection from="left0A0" to="A0bottom0" fromLane="0" toLane="0" via=":A0_18_0" tl="A0" linkIndex="18" dir="r" state="o"/>
    <connection from="left0A0" to="A0right0" fromLane="0" toLane="0" via=":A0_19_0" tl="A0" linkIndex="19" dir="s" state="o"/>
    <connection from="left0A0" to="A0right0" fromLane="1" toLane="1" via=":A0_19_1" tl="A0" linkIndex="20" dir="s" state="o"/>
    <connection from="left0A0" to="A0right0" fromLane="2" toLane="2" via=":A0_19_2" tl="A0" linkIndex="21" dir="s" state="o"/>
    <connection from="left0A0" to="A0right0" fromLane="3" toLane="3" via=":A0_19_3" tl="A0" linkIndex="22" dir="s" state="o"/>
    <connection from="left0A0" to="A0top0" fromLane="3" toLane="3" via=":A0_23_0" tl="A0" linkIndex="23" dir="l" state="o"/>
    <connection from="right0A0" to="A0top0" fromLane="0" toLane="0" via=":A0_6_0" tl="A0" linkIndex="6" dir="r" state="o"/>
    <connection from="right0A0" to="A0left0" fromLane="0" toLane="0" via=":A0_7_0" tl="A0" linkIndex="7" dir="s" state="o"/>
    <connection from="right0A0" to="A0left0" fromLane="1" toLane="1" via=":A0_7_1" tl="A0" linkIndex="8" dir="s" state="o"/>
    <connection from="right0A0" to="A0left0" fromLane="2" toLane="2" via=":A0_7_2" tl="A0" linkIndex="9" dir="s" state="o"/>
    <connection from="right0A0" to="A0left0" fromLane="3" toLane="3" via=":A0_7_3" tl="A0" linkIndex="10" dir="s" state="o"/>
    <connection from="right0A0" to="A0bottom0" fromLane="3" toLane="3" via=":A0_11_0" tl="A0" linkIndex="11" dir="l" state="o"/>
    <connection from="top0A0" to="A0left0" fromLane="0" toLane="0" via=":A0_0_0" tl="A0" linkIndex="0" dir="r" state="O"/>
    <connection from="top0A0" to="A0bottom0" fromLane="0" toLane="0" via=":A0_1_0" tl="A0" linkIndex="1" dir="s" state="O"/>
    <connection from="top0A0" to="A0bottom0" fromLane="1" toLane="1" via=":A0_1_1" tl="A0" linkIndex="2" dir="s" state="O"/>
    <connection from="top0A0" to="A0bottom0" fromLane="2" toLane="2" via=":A0_1_2" tl="A0" linkIndex="3" dir="s" state="O"/>
    <connection from="top0A0" to="A0bottom0" fromLane="3" toLane="3" via=":A0_1_3" tl="A0" linkIndex="4" dir="s" state="O"/>
    <connection from="top0A0" to="A0right0" fromLane="3" toLane="3" via=":A0_5_0" tl="A0" linkIndex="5" dir="l" state="o"/>

    <connection from=":A0_0" to="A0left0" fromLane="0" toLane="0" dir="r" state="M"/>
    <connection from=":A0_1" to="A0bottom0" fromLane="0" toLane="0" dir="s" state="M"/>
    <connection from=":A0_1" to="A0bottom0" fromLane="1" toLane="1" dir="s" state="M"/>
    <connection from=":A0_1" to="A0bottom0" fromLane="2" toLane="2" dir="s" state="M"/>
    <connection from=":A0_1" to="A0bottom0" fromLane="3" toLane="3" dir="s" state="M"/>
    <connection from=":A0_5" to="A0right0" fromLane="0" toLane="3" via=":A0_24_0" dir="l" state="m"/>
    <connection from=":A0_24" to="A0right0" fromLane="0" toLane="3" dir="l" state="M"/>
    <connection from=":A0_6" to="A0top0" fromLane="0" toLane="0" dir="r" state="M"/>
    <connection from=":A0_7" to="A0left0" fromLane="0" toLane="0" dir="s" state="M"/>
    <connection from=":A0_7" to="A0left0" fromLane="1" toLane="1" dir="s" state="M"/>
    <connection from=":A0_7" to="A0left0" fromLane="2" toLane="2" dir="s" state="M"/>
    <connection from=":A0_7" to="A0left0" fromLane="3" toLane="3" dir="s" state="M"/>
    <connection from=":A0_11" to="A0bottom0" fromLane="0" toLane="3" via=":A0_25_0" dir="l" state="m"/>
    <connection from=":A0_25" to="A0bottom0" fromLane="0" toLane="3" dir="l" state="M"/>
    <connection from=":A0_12" to="A0right0" fromLane="0" toLane="0" dir="r" state="M"/>
    <connection from=":A0_13" to="A0top0" fromLane="0" toLane="0" dir="s" state="M"/>
    <connection from=":A0_13" to="A0top0" fromLane="1" toLane="1" dir="s" state="M"/>
    <connection from=":A0_13" to="A0top0" fromLane="2" toLane="2" dir="s" state="M"/>
    <connection from=":A0_13" to="A0top0" fromLane="3" toLane="3" dir="s" state="M"/>
    <connection from=":A0_17" to="A0left0" fromLane="0" toLane="3" via=":A0_26_0" dir="l" state="m"/>
    <connection from=":A0_26" to="A0left0" fromLane="0" toLane="3" dir="l" state="M"/>
    <connection from=":A0_18" to="A0bottom0" fromLane="0" toLane="0" dir="r" state="M"/>
    <connection from=":A0_19" to="A0right0" fromLane="0" toLane="0" dir="s" state="M"/>
    <connection from=":A0_19" to="A0right0" fromLane="1" toLane="1" dir="s" state="M"/>
    <connection from=":A0_19" to="A0right0" fromLane="2" toLane="2" dir="s" state="M"/>
    <connection from=":A0_19" to="A0right0" fromLane="3" toLane="3" dir="s" state="M"/>
    <connection from=":A0_23" to="A0top0" fromLane="0" toLane="3" via=":A0_27_0" dir="l" state="m"/>
    <connection from=":A0_27" to="A0top0" fromLane="0" toLane="3" dir="l" state="M"/>

</net>
